@<TRIPOS>MOLECULE
molecules/dpc/dpc.pdb
 48 48 0 0 0
SMALL
GASTEIGER

@<TRIPOS>ATOM
      1 C           1.5660   -9.0650   -0.6710 C.3     1  UNL1       -0.0653
      2 C           1.1100   -7.7360   -0.0440 C.3     1  UNL1       -0.0559
      3 C          -0.3660   -7.4110   -0.3430 C.3     1  UNL1       -0.0533
      4 C          -0.8900   -6.1220    0.3260 C.3     1  UNL1       -0.0531
      5 C          -0.2630   -4.8220   -0.2140 C.3     1  UNL1       -0.0531
      6 C          -0.8460   -3.5530    0.4360 C.3     1  UNL1       -0.0531
      7 C          -0.2270   -2.2510   -0.1060 C.3     1  UNL1       -0.0531
      8 C          -0.7990   -0.9820    0.5530 C.3     1  UNL1       -0.0531
      9 C          -0.1780    0.3160    0.0050 C.3     1  UNL1       -0.0530
     10 C          -0.7420    1.5840    0.6760 C.3     1  UNL1       -0.0516
     11 C          -0.1150    2.8770    0.1140 C.3     1  UNL1       -0.0372
     12 C          -0.6840    4.1230    0.8120 C.3     1  UNL1        0.0124
     13 N          -0.0910    5.3970    0.2670 N.pl3   1  UNL1       -0.3271
     14 C           1.0710    5.8770    0.7940 C.3     1  UNL1        0.0636
     15 C           1.6630    7.0220    0.2750 C.2     1  UNL1       -0.0618
     16 C           1.0550    7.6840   -0.8010 C.2     1  UNL1       -0.0627
     17 C          -0.1390    7.1760   -1.3300 C.2     1  UNL1       -0.0483
     18 C          -0.6960    6.0280   -0.7800 C.2     1  UNL1       -0.0074
     19 H           0.9670   -9.9050   -0.2950 H       1  UNL1        0.0230
     20 H           2.6180   -9.2760   -0.4420 H       1  UNL1        0.0230
     21 H           1.4600   -9.0430   -1.7630 H       1  UNL1        0.0230
     22 H           1.2540   -7.7780    1.0470 H       1  UNL1        0.0263
     23 H           1.7550   -6.9250   -0.4110 H       1  UNL1        0.0263
     24 H          -0.9850   -8.2580   -0.0090 H       1  UNL1        0.0265
     25 H          -0.5090   -7.3380   -1.4330 H       1  UNL1        0.0265
     26 H          -0.7180   -6.1840    1.4130 H       1  UNL1        0.0265
     27 H          -1.9810   -6.0700    0.1900 H       1  UNL1        0.0265
     28 H           0.8250   -4.8380   -0.0540 H       1  UNL1        0.0265
     29 H          -0.4160   -4.7750   -1.3040 H       1  UNL1        0.0265
     30 H          -0.6920   -3.6020    1.5250 H       1  UNL1        0.0265
     31 H          -1.9350   -3.5320    0.2780 H       1  UNL1        0.0265
     32 H          -0.3870   -2.2000   -1.1940 H       1  UNL1        0.0265
     33 H           0.8640   -2.2790    0.0450 H       1  UNL1        0.0265
     34 H          -1.8890   -0.9560    0.4030 H       1  UNL1        0.0265
     35 H          -0.6360   -1.0340    1.6400 H       1  UNL1        0.0265
     36 H          -0.3490    0.3710   -1.0810 H       1  UNL1        0.0265
     37 H           0.9130    0.2850    0.1480 H       1  UNL1        0.0265
     38 H          -0.5650    1.5290    1.7600 H       1  UNL1        0.0266
     39 H          -1.8330    1.6130    0.5360 H       1  UNL1        0.0266
     40 H           0.9750    2.8470    0.2470 H       1  UNL1        0.0280
     41 H          -0.3060    2.9420   -0.9660 H       1  UNL1        0.0280
     42 H          -0.4750    4.1090    1.8850 H       1  UNL1        0.0464
     43 H          -1.7670    4.1950    0.6800 H       1  UNL1        0.0464
     44 H           1.4920    5.3240    1.6240 H       1  UNL1        0.0565
     45 H           2.5840    7.3870    0.7120 H       1  UNL1        0.0591
     46 H           1.5020    8.5800   -1.2170 H       1  UNL1        0.0615
     47 H          -0.6400    7.6620   -2.1590 H       1  UNL1        0.0630
     48 H          -1.6160    5.5890   -1.1440 H       1  UNL1        0.0780
@<TRIPOS>BOND
     1     1    19    1
     2     1    21    1
     3     1     2    1
     4     1    20    1
     5     2     3    1
     6     2    23    1
     7     2    22    1
     8     3    24    1
     9     3    25    1
    10     3     4    1
    11     4    26    1
    12     4    27    1
    13     4     5    1
    14     5    29    1
    15     5     6    1
    16     5    28    1
    17     6     7    1
    18     6    30    1
    19     6    31    1
    20     7    32    1
    21     7     8    1
    22     7    33    1
    23     8    34    1
    24     8    35    1
    25     8     9    1
    26     9    36    1
    27     9    10    1
    28     9    37    1
    29    10    39    1
    30    10    38    1
    31    10    11    1
    32    11    41    1
    33    11    12    1
    34    11    40    1
    35    12    13    1
    36    12    43    1
    37    12    42    1
    38    13    18    1
    39    13    14    1
    40    14    44    1
    41    14    15    1
    42    15    16    2
    43    15    45    1
    44    16    17    1
    45    16    46    1
    46    17    18    2
    47    17    47    1
    48    18    48    1
