@<TRIPOS>MOLECULE
molecules/dpc/dpc.pdb
   48    48     1     0     0
SMALL
bcc


@<TRIPOS>ATOM
      1 C            1.5660    -9.0650    -0.6710 c3         1 UNL      -0.094100
      2 C1           1.1100    -7.7360    -0.0440 c3         1 UNL      -0.079400
      3 C2          -0.3660    -7.4110    -0.3430 c3         1 UNL      -0.079400
      4 C3          -0.8900    -6.1220     0.3260 c3         1 UNL      -0.077400
      5 C4          -0.2630    -4.8220    -0.2140 c3         1 UNL      -0.079400
      6 C5          -0.8460    -3.5530     0.4360 c3         1 UNL      -0.079400
      7 C6          -0.2270    -2.2510    -0.1060 c3         1 UNL      -0.079400
      8 C7          -0.7990    -0.9820     0.5530 c3         1 UNL      -0.079400
      9 C8          -0.1780     0.3160     0.0050 c3         1 UNL      -0.079400
     10 C9          -0.7420     1.5840     0.6760 c3         1 UNL      -0.081400
     11 C10         -0.1150     2.8770     0.1140 c3         1 UNL      -0.100400
     12 C11         -0.6840     4.1230     0.8120 c3         1 UNL      -0.014700
     13 N           -0.0910     5.3970     0.2670 na         1 UNL       0.035900
     14 C12          1.0710     5.8770     0.7940 ca         1 UNL      -0.029300
     15 C13          1.6630     7.0220     0.2750 ca         1 UNL      -0.136500
     16 C14          1.0550     7.6840    -0.8010 ca         1 UNL      -0.010000
     17 C15         -0.1390     7.1760    -1.3300 ca         1 UNL      -0.136500
     18 C16         -0.6960     6.0280    -0.7800 ca         1 UNL      -0.029300
     19 H            0.9670    -9.9050    -0.2950 hc         1 UNL       0.035367
     20 H1           2.6180    -9.2760    -0.4420 hc         1 UNL       0.035367
     21 H2           1.4600    -9.0430    -1.7630 hc         1 UNL       0.035367
     22 H3           1.2540    -7.7780     1.0470 hc         1 UNL       0.037200
     23 H4           1.7550    -6.9250    -0.4110 hc         1 UNL       0.037200
     24 H5          -0.9850    -8.2580    -0.0090 hc         1 UNL       0.042200
     25 H6          -0.5090    -7.3380    -1.4330 hc         1 UNL       0.042200
     26 H7          -0.7180    -6.1840     1.4130 hc         1 UNL       0.040200
     27 H8          -1.9810    -6.0700     0.1900 hc         1 UNL       0.040200
     28 H9           0.8250    -4.8380    -0.0540 hc         1 UNL       0.041700
     29 H10         -0.4160    -4.7750    -1.3040 hc         1 UNL       0.041700
     30 H11         -0.6920    -3.6020     1.5250 hc         1 UNL       0.041700
     31 H12         -1.9350    -3.5320     0.2780 hc         1 UNL       0.041700
     32 H13         -0.3870    -2.2000    -1.1940 hc         1 UNL       0.042700
     33 H14          0.8640    -2.2790     0.0450 hc         1 UNL       0.042700
     34 H15         -1.8890    -0.9560     0.4030 hc         1 UNL       0.044700
     35 H16         -0.6360    -1.0340     1.6400 hc         1 UNL       0.044700
     36 H17         -0.3490     0.3710    -1.0810 hc         1 UNL       0.047200
     37 H18          0.9130     0.2850     0.1480 hc         1 UNL       0.047200
     38 H19         -0.5650     1.5290     1.7600 hc         1 UNL       0.053200
     39 H20         -1.8330     1.6130     0.5360 hc         1 UNL       0.053200
     40 H21          0.9750     2.8470     0.2470 hc         1 UNL       0.065200
     41 H22         -0.3060     2.9420    -0.9660 hc         1 UNL       0.065200
     42 H23         -0.4750     4.1090     1.8850 h1         1 UNL       0.099200
     43 H24         -1.7670     4.1950     0.6800 h1         1 UNL       0.099200
     44 H25          1.4920     5.3240     1.6240 h4         1 UNL       0.209500
     45 H26          2.5840     7.3870     0.7120 ha         1 UNL       0.201000
     46 H27          1.5020     8.5800    -1.2170 ha         1 UNL       0.194000
     47 H28         -0.6400     7.6620    -2.1590 ha         1 UNL       0.201000
     48 H29         -1.6160     5.5890    -1.1440 h4         1 UNL       0.209500
@<TRIPOS>BOND
     1     1    19 1   
     2     1    21 1   
     3     1     2 1   
     4     1    20 1   
     5     2     3 1   
     6     2    23 1   
     7     2    22 1   
     8     3    24 1   
     9     3    25 1   
    10     3     4 1   
    11     4    26 1   
    12     4    27 1   
    13     4     5 1   
    14     5    29 1   
    15     5     6 1   
    16     5    28 1   
    17     6     7 1   
    18     6    30 1   
    19     6    31 1   
    20     7    32 1   
    21     7     8 1   
    22     7    33 1   
    23     8    34 1   
    24     8    35 1   
    25     8     9 1   
    26     9    36 1   
    27     9    10 1   
    28     9    37 1   
    29    10    39 1   
    30    10    38 1   
    31    10    11 1   
    32    11    41 1   
    33    11    12 1   
    34    11    40 1   
    35    12    13 1   
    36    12    43 1   
    37    12    42 1   
    38    13    18 1   
    39    13    14 2   
    40    14    44 1   
    41    14    15 ar  
    42    15    16 ar  
    43    15    45 1   
    44    16    17 ar  
    45    16    46 1   
    46    17    18 ar  
    47    17    47 1   
    48    18    48 1   
@<TRIPOS>SUBSTRUCTURE
     1 UNL         1 TEMP              0 ****  ****    0 ROOT
