@<TRIPOS>MOLECULE
molecules/bdc/bdc.pdb
 60 60 0 0 0
SMALL
GASTEIGER

@<TRIPOS>ATOM
      1 C          -0.8220  -10.7350   -0.5410 C.3     1  UNL1       -0.0653
      2 C          -0.8760   -9.2990    0.0090 C.3     1  UNL1       -0.0559
      3 C           0.3910   -8.4820   -0.3060 C.3     1  UNL1       -0.0533
      4 C           0.3490   -7.0460    0.2480 C.3     1  UNL1       -0.0531
      5 C           1.6160   -6.2320   -0.0790 C.3     1  UNL1       -0.0531
      6 C           1.6480   -4.8160    0.5350 C.3     1  UNL1       -0.0531
      7 C           0.5960   -3.8490   -0.0430 C.3     1  UNL1       -0.0531
      8 C           0.6850   -2.4340    0.5610 C.3     1  UNL1       -0.0531
      9 C          -0.3580   -1.4600   -0.0180 C.3     1  UNL1       -0.0531
     10 C          -0.2880   -0.0550    0.6100 C.3     1  UNL1       -0.0547
     11 C          -1.3500    0.9050    0.0290 C.3     1  UNL1       -0.0676
     12 C          -1.4060    2.2940    0.6970 C.3     1  UNL1       -0.0882
     13 N          -0.6870    3.4490   -0.0440 N.4     1  UNL1        0.3790
     14 C           0.7540    3.0930   -0.3430 C.3     1  UNL1       -0.1004
     15 C          -1.4060    3.7640   -1.3420 C.3     1  UNL1       -0.1004
     16 C          -0.7450    4.6950    0.9160 C.3     1  UNL1       -0.0623
     17 C          -0.1520    5.9670    0.3740 C.ar    1  UNL1       -0.0635
     18 C           1.2040    6.2770    0.5970 C.ar    1  UNL1       -0.0604
     19 C           1.7460    7.4800    0.1270 C.ar    1  UNL1       -0.0616
     20 C           0.9350    8.3910   -0.5620 C.ar    1  UNL1       -0.0617
     21 C          -0.4210    8.1050   -0.7700 C.ar    1  UNL1       -0.0616
     22 C          -0.9620    6.9030   -0.3000 C.ar    1  UNL1       -0.0604
     23 H          -1.7370  -11.2890   -0.3030 H       1  UNL1        0.0230
     24 H           0.0250  -11.2880   -0.1160 H       1  UNL1        0.0230
     25 H          -0.7050  -10.7350   -1.6330 H       1  UNL1        0.0230
     26 H          -1.0250   -9.3300    1.0990 H       1  UNL1        0.0263
     27 H          -1.7530   -8.7800   -0.4080 H       1  UNL1        0.0263
     28 H           1.2690   -9.0050    0.1050 H       1  UNL1        0.0265
     29 H           0.5370   -8.4470   -1.3970 H       1  UNL1        0.0265
     30 H           0.2180   -7.0840    1.3420 H       1  UNL1        0.0265
     31 H          -0.5400   -6.5370   -0.1540 H       1  UNL1        0.0265
     32 H           1.7290   -6.1560   -1.1720 H       1  UNL1        0.0265
     33 H           2.4940   -6.7890    0.2810 H       1  UNL1        0.0265
     34 H           2.6480   -4.3840    0.3790 H       1  UNL1        0.0265
     35 H           1.5100   -4.8940    1.6250 H       1  UNL1        0.0265
     36 H           0.7250   -3.7870   -1.1350 H       1  UNL1        0.0265
     37 H          -0.4130   -4.2480    0.1300 H       1  UNL1        0.0265
     38 H           1.6960   -2.0300    0.3920 H       1  UNL1        0.0265
     39 H           0.5550   -2.4990    1.6530 H       1  UNL1        0.0265
     40 H          -1.3660   -1.8740    0.1350 H       1  UNL1        0.0265
     41 H          -0.2170   -1.3830   -1.1070 H       1  UNL1        0.0265
     42 H           0.7230    0.3520    0.4690 H       1  UNL1        0.0265
     43 H          -0.4410   -0.1380    1.6960 H       1  UNL1        0.0265
     44 H          -2.3380    0.4460    0.1650 H       1  UNL1        0.0247
     45 H          -1.2230    0.9880   -1.0580 H       1  UNL1        0.0247
     46 H          -0.9520    2.2570    1.6920 H       1  UNL1        0.0064
     47 H          -2.4370    2.6400    0.8070 H       1  UNL1        0.0064
     48 H           0.7770    2.2340   -1.0120 H       1  UNL1        0.0028
     49 H           1.2600    2.8490    0.5930 H       1  UNL1        0.0028
     50 H           1.2340    3.9480   -0.8170 H       1  UNL1        0.0028
     51 H          -1.3800    2.8870   -1.9870 H       1  UNL1        0.0028
     52 H          -0.9040    4.5990   -1.8280 H       1  UNL1        0.0028
     53 H          -2.4400    4.0290   -1.1180 H       1  UNL1        0.0028
     54 H          -0.2280    4.3660    1.8200 H       1  UNL1        0.0111
     55 H          -1.8080    4.8160    1.1430 H       1  UNL1        0.0111
     56 H           1.8350    5.5930    1.1590 H       1  UNL1        0.0620
     57 H           2.7890    7.7100    0.3120 H       1  UNL1        0.0618
     58 H           1.3530    9.3260   -0.9200 H       1  UNL1        0.0618
     59 H          -1.0570    8.8200   -1.2810 H       1  UNL1        0.0618
     60 H          -2.0220    6.7040   -0.4390 H       1  UNL1        0.0620
@<TRIPOS>BOND
     1     1    23    1
     2     1    25    1
     3     1     2    1
     4     1    24    1
     5     2    27    1
     6     2    26    1
     7     2     3    1
     8     3    29    1
     9     3    28    1
    10     3     4    1
    11     4    31    1
    12     4    30    1
    13     4     5    1
    14     5    32    1
    15     5    33    1
    16     5     6    1
    17     6     7    1
    18     6    34    1
    19     6    35    1
    20     7    36    1
    21     7    37    1
    22     7     8    1
    23     8    39    1
    24     8     9    1
    25     8    38    1
    26     9    40    1
    27     9    41    1
    28     9    10    1
    29    10    11    1
    30    10    42    1
    31    10    43    1
    32    11    45    1
    33    11    12    1
    34    11    44    1
    35    12    46    1
    36    12    13    1
    37    12    47    1
    38    13    15    1
    39    13    16    1
    40    13    14    1
    41    14    48    1
    42    14    50    1
    43    14    49    1
    44    15    51    1
    45    15    53    1
    46    15    52    1
    47    16    55    1
    48    16    17    1
    49    16    54    1
    50    17    22   ar
    51    17    18   ar
    52    18    56    1
    53    18    19   ar
    54    19    20   ar
    55    19    57    1
    56    20    21   ar
    57    20    58    1
    58    21    22   ar
    59    21    59    1
    60    22    60    1
