@<TRIPOS>MOLECULE
molecules/bdc/bdc.pdb
   60    60     1     0     0
SMALL
bcc


@<TRIPOS>ATOM
      1 C           -0.8220   -10.7350    -0.5410 c3         1 UNL      -0.094100
      2 C1          -0.8760    -9.2990     0.0090 c3         1 UNL      -0.079400
      3 C2           0.3910    -8.4820    -0.3060 c3         1 UNL      -0.080400
      4 C3           0.3490    -7.0460     0.2480 c3         1 UNL      -0.078400
      5 C4           1.6160    -6.2320    -0.0790 c3         1 UNL      -0.079400
      6 C5           1.6480    -4.8160     0.5350 c3         1 UNL      -0.077400
      7 C6           0.5960    -3.8490    -0.0430 c3         1 UNL      -0.079400
      8 C7           0.6850    -2.4340     0.5610 c3         1 UNL      -0.079400
      9 C8          -0.3580    -1.4600    -0.0180 c3         1 UNL      -0.081400
     10 C9          -0.2880    -0.0550     0.6100 c3         1 UNL      -0.088400
     11 C10         -1.3500     0.9050     0.0290 c3         1 UNL      -0.105400
     12 C11         -1.4060     2.2940     0.6970 c3         1 UNL       0.115800
     13 N           -0.6870     3.4490    -0.0440 n4         1 UNL      -0.606800
     14 C12          0.7540     3.0930    -0.3430 c3         1 UNL       0.087600
     15 C13         -1.4060     3.7640    -1.3420 c3         1 UNL       0.087600
     16 C14         -0.7450     4.6950     0.9160 c3         1 UNL       0.181100
     17 C15         -0.1520     5.9670     0.3740 ca         1 UNL      -0.175300
     18 C16          1.2040     6.2770     0.5970 ca         1 UNL      -0.106000
     19 C17          1.7460     7.4800     0.1270 ca         1 UNL      -0.118000
     20 C18          0.9350     8.3910    -0.5620 ca         1 UNL      -0.081000
     21 C19         -0.4210     8.1050    -0.7700 ca         1 UNL      -0.118000
     22 C20         -0.9620     6.9030    -0.3000 ca         1 UNL      -0.106000
     23 H           -1.7370   -11.2890    -0.3030 hc         1 UNL       0.035367
     24 H1           0.0250   -11.2880    -0.1160 hc         1 UNL       0.035367
     25 H2          -0.7050   -10.7350    -1.6330 hc         1 UNL       0.035367
     26 H3          -1.0250    -9.3300     1.0990 hc         1 UNL       0.037700
     27 H4          -1.7530    -8.7800    -0.4080 hc         1 UNL       0.037700
     28 H5           1.2690    -9.0050     0.1050 hc         1 UNL       0.041700
     29 H6           0.5370    -8.4470    -1.3970 hc         1 UNL       0.041700
     30 H7           0.2180    -7.0840     1.3420 hc         1 UNL       0.038200
     31 H8          -0.5400    -6.5370    -0.1540 hc         1 UNL       0.038200
     32 H9           1.7290    -6.1560    -1.1720 hc         1 UNL       0.044200
     33 H10          2.4940    -6.7890     0.2810 hc         1 UNL       0.044200
     34 H11          2.6480    -4.3840     0.3790 hc         1 UNL       0.040700
     35 H12          1.5100    -4.8940     1.6250 hc         1 UNL       0.040700
     36 H13          0.7250    -3.7870    -1.1350 hc         1 UNL       0.044700
     37 H14         -0.4130    -4.2480     0.1300 hc         1 UNL       0.044700
     38 H15          1.6960    -2.0300     0.3920 hc         1 UNL       0.043200
     39 H16          0.5550    -2.4990     1.6530 hc         1 UNL       0.043200
     40 H17         -1.3660    -1.8740     0.1350 hc         1 UNL       0.048700
     41 H18         -0.2170    -1.3830    -1.1070 hc         1 UNL       0.048700
     42 H19          0.7230     0.3520     0.4690 hc         1 UNL       0.046700
     43 H20         -0.4410    -0.1380     1.6960 hc         1 UNL       0.046700
     44 H21         -2.3380     0.4460     0.1650 hc         1 UNL       0.075700
     45 H22         -1.2230     0.9880    -1.0580 hc         1 UNL       0.075700
     46 H23         -0.9520     2.2570     1.6920 hx         1 UNL       0.094700
     47 H24         -2.4370     2.6400     0.8070 hx         1 UNL       0.094700
     48 H25          0.7770     2.2340    -1.0120 hx         1 UNL       0.099367
     49 H26          1.2600     2.8490     0.5930 hx         1 UNL       0.099367
     50 H27          1.2340     3.9480    -0.8170 hx         1 UNL       0.099367
     51 H28         -1.3800     2.8870    -1.9870 hx         1 UNL       0.099367
     52 H29         -0.9040     4.5990    -1.8280 hx         1 UNL       0.099367
     53 H30         -2.4400     4.0290    -1.1180 hx         1 UNL       0.099367
     54 H31         -0.2280     4.3660     1.8200 hx         1 UNL       0.098700
     55 H32         -1.8080     4.8160     1.1430 hx         1 UNL       0.098700
     56 H33          1.8350     5.5930     1.1590 ha         1 UNL       0.136500
     57 H34          2.7890     7.7100     0.3120 ha         1 UNL       0.159000
     58 H35          1.3530     9.3260    -0.9200 ha         1 UNL       0.161000
     59 H36         -1.0570     8.8200    -1.2810 ha         1 UNL       0.159000
     60 H37         -2.0220     6.7040    -0.4390 ha         1 UNL       0.136500
@<TRIPOS>BOND
     1     1    23 1   
     2     1    25 1   
     3     1     2 1   
     4     1    24 1   
     5     2    27 1   
     6     2    26 1   
     7     2     3 1   
     8     3    29 1   
     9     3    28 1   
    10     3     4 1   
    11     4    31 1   
    12     4    30 1   
    13     4     5 1   
    14     5    32 1   
    15     5    33 1   
    16     5     6 1   
    17     6     7 1   
    18     6    34 1   
    19     6    35 1   
    20     7    36 1   
    21     7    37 1   
    22     7     8 1   
    23     8    39 1   
    24     8     9 1   
    25     8    38 1   
    26     9    40 1   
    27     9    41 1   
    28     9    10 1   
    29    10    11 1   
    30    10    42 1   
    31    10    43 1   
    32    11    45 1   
    33    11    12 1   
    34    11    44 1   
    35    12    46 1   
    36    12    13 1   
    37    12    47 1   
    38    13    15 1   
    39    13    16 1   
    40    13    14 1   
    41    14    48 1   
    42    14    50 1   
    43    14    49 1   
    44    15    51 1   
    45    15    53 1   
    46    15    52 1   
    47    16    55 1   
    48    16    17 1   
    49    16    54 1   
    50    17    22 ar  
    51    17    18 ar  
    52    18    56 1   
    53    18    19 ar  
    54    19    20 ar  
    55    19    57 1   
    56    20    21 ar  
    57    20    58 1   
    58    21    22 ar  
    59    21    59 1   
    60    22    60 1   
@<TRIPOS>SUBSTRUCTURE
     1 UNL         1 TEMP              0 ****  ****    0 ROOT
