@<TRIPOS>MOLECULE
molecules/dlib/dlib.pdb
   49    49     1     0     0
SMALL
bcc


@<TRIPOS>ATOM
      1 C           -0.7050    -9.9780    -0.4510 c3         1 UNL      -0.093100
      2 C1           0.0180    -8.7710     0.1700 c3         1 UNL      -0.079400
      3 C2          -0.4930    -7.4200    -0.3650 c3         1 UNL      -0.079400
      4 C3           0.2210    -6.2050     0.2550 c3         1 UNL      -0.079400
      5 C4          -0.2860    -4.8540    -0.2850 c3         1 UNL      -0.079400
      6 C5           0.4230    -3.6390     0.3420 c3         1 UNL      -0.079400
      7 C6          -0.0900    -2.2900    -0.1950 c3         1 UNL      -0.079400
      8 C7           0.6090    -1.0730     0.4410 c3         1 UNL      -0.079400
      9 C8           0.0920     0.2740    -0.0980 c3         1 UNL      -0.078400
     10 C9           0.7770     1.4900     0.5550 c3         1 UNL      -0.081400
     11 C10          0.2530     2.8320     0.0050 c3         1 UNL      -0.101400
     12 C11          0.9350     4.0270     0.6880 c3         1 UNL       0.013300
     13 N            0.4510     5.3360     0.1670 na         1 UNL      -0.014100
     14 C12          0.8520     5.9310    -1.0300 cc         1 UNL      -0.115300
     15 C13          0.1380     7.0920    -1.1630 cd         1 UNL      -0.121300
     16 N1          -0.6930     7.1920    -0.0470 na         1 UNL      -0.017100
     17 C14         -0.4860     6.1170     0.7440 cc         1 UNL      -0.035600
     18 C15         -1.6350     8.2970     0.2220 c3         1 UNL      -0.005400
     19 H           -0.3180   -10.9240    -0.0520 hc         1 UNL       0.034700
     20 H1          -0.5770    -9.9970    -1.5410 hc         1 UNL       0.034700
     21 H2          -1.7820    -9.9440    -0.2420 hc         1 UNL       0.034700
     22 H3           1.0980    -8.8510    -0.0230 hc         1 UNL       0.039200
     23 H4          -0.1030    -8.7950     1.2640 hc         1 UNL       0.039200
     24 H5          -0.3700    -7.3960    -1.4590 hc         1 UNL       0.040200
     25 H6          -1.5750    -7.3430    -0.1740 hc         1 UNL       0.040200
     26 H7           1.3030    -6.2860     0.0690 hc         1 UNL       0.040700
     27 H8           0.0930    -6.2290     1.3480 hc         1 UNL       0.040700
     28 H9          -0.1540    -4.8290    -1.3780 hc         1 UNL       0.040700
     29 H10         -1.3690    -4.7760    -0.1040 hc         1 UNL       0.040700
     30 H11          1.5060    -3.7170     0.1570 hc         1 UNL       0.041700
     31 H12          0.2920    -3.6690     1.4350 hc         1 UNL       0.041700
     32 H13         -1.1740    -2.2190    -0.0170 hc         1 UNL       0.042200
     33 H14          0.0480    -2.2580    -1.2870 hc         1 UNL       0.042200
     34 H15          0.4700    -1.1050     1.5330 hc         1 UNL       0.044200
     35 H16          1.6930    -1.1430     0.2640 hc         1 UNL       0.044200
     36 H17         -0.9950     0.3370     0.0660 hc         1 UNL       0.046700
     37 H18          0.2450     0.3110    -1.1880 hc         1 UNL       0.046700
     38 H19          1.8630     1.4250     0.3940 hc         1 UNL       0.052200
     39 H20          0.6180     1.4520     1.6440 hc         1 UNL       0.052200
     40 H21          0.4270     2.8770    -1.0790 hc         1 UNL       0.063200
     41 H22         -0.8330     2.8960     0.1580 hc         1 UNL       0.063200
     42 H23          2.0190     4.0060     0.5390 h1         1 UNL       0.095200
     43 H24          0.7490     4.0230     1.7660 h1         1 UNL       0.095200
     44 H25          1.5970     5.4880    -1.6680 h4         1 UNL       0.233000
     45 H26          0.1510     7.8420    -1.9360 h4         1 UNL       0.233000
     46 H27         -0.9830     5.9170     1.6780 h5         1 UNL       0.256000
     47 H28         -2.3720     8.3530    -0.5810 h1         1 UNL       0.096033
     48 H29         -1.0860     9.2380     0.2930 h1         1 UNL       0.096033
     49 H30         -2.1470     8.1070     1.1660 h1         1 UNL       0.096033
@<TRIPOS>BOND
     1     1    20 1   
     2     1    21 1   
     3     1    19 1   
     4     1     2 1   
     5     2     3 1   
     6     2    22 1   
     7     2    23 1   
     8     3    25 1   
     9     3    24 1   
    10     3     4 1   
    11     4    26 1   
    12     4    27 1   
    13     4     5 1   
    14     5    29 1   
    15     5    28 1   
    16     5     6 1   
    17     6    30 1   
    18     6    31 1   
    19     6     7 1   
    20     7    32 1   
    21     7    33 1   
    22     7     8 1   
    23     8     9 1   
    24     8    34 1   
    25     8    35 1   
    26     9    36 1   
    27     9    37 1   
    28     9    10 1   
    29    10    39 1   
    30    10    11 1   
    31    10    38 1   
    32    11    41 1   
    33    11    40 1   
    34    11    12 1   
    35    12    43 1   
    36    12    13 1   
    37    12    42 1   
    38    13    17 2   
    39    13    14 1   
    40    14    15 2   
    41    14    44 1   
    42    15    16 1   
    43    15    45 1   
    44    16    17 1   
    45    16    18 1   
    46    17    46 1   
    47    18    47 1   
    48    18    49 1   
    49    18    48 1   
@<TRIPOS>SUBSTRUCTURE
     1 UNL         1 TEMP              0 ****  ****    0 ROOT
