@<TRIPOS>MOLECULE
molecules/dlib/dlib.pdb
 49 49 0 0 0
SMALL
GASTEIGER

@<TRIPOS>ATOM
      1 C          -0.7050   -9.9780   -0.4510 C.3     1  UNL1       -0.0653
      2 C           0.0180   -8.7710    0.1700 C.3     1  UNL1       -0.0559
      3 C          -0.4930   -7.4200   -0.3650 C.3     1  UNL1       -0.0533
      4 C           0.2210   -6.2050    0.2550 C.3     1  UNL1       -0.0531
      5 C          -0.2860   -4.8540   -0.2850 C.3     1  UNL1       -0.0531
      6 C           0.4230   -3.6390    0.3420 C.3     1  UNL1       -0.0531
      7 C          -0.0900   -2.2900   -0.1950 C.3     1  UNL1       -0.0531
      8 C           0.6090   -1.0730    0.4410 C.3     1  UNL1       -0.0531
      9 C           0.0920    0.2740   -0.0980 C.3     1  UNL1       -0.0530
     10 C           0.7770    1.4900    0.5550 C.3     1  UNL1       -0.0516
     11 C           0.2530    2.8320    0.0050 C.3     1  UNL1       -0.0372
     12 C           0.9350    4.0270    0.6880 C.3     1  UNL1        0.0135
     13 N           0.4510    5.3360    0.1670 N.pl3   1  UNL1       -0.3135
     14 C           0.8520    5.9310   -1.0300 C.2     1  UNL1        0.0074
     15 C           0.1380    7.0920   -1.1630 C.2     1  UNL1        0.0072
     16 N          -0.6930    7.1920   -0.0470 N.pl3   1  UNL1       -0.3166
     17 C          -0.4860    6.1170    0.7440 C.3     1  UNL1        0.1250
     18 C          -1.6350    8.2970    0.2220 C.3     1  UNL1        0.0020
     19 H          -0.3180  -10.9240   -0.0520 H       1  UNL1        0.0230
     20 H          -0.5770   -9.9970   -1.5410 H       1  UNL1        0.0230
     21 H          -1.7820   -9.9440   -0.2420 H       1  UNL1        0.0230
     22 H           1.0980   -8.8510   -0.0230 H       1  UNL1        0.0263
     23 H          -0.1030   -8.7950    1.2640 H       1  UNL1        0.0263
     24 H          -0.3700   -7.3960   -1.4590 H       1  UNL1        0.0265
     25 H          -1.5750   -7.3430   -0.1740 H       1  UNL1        0.0265
     26 H           1.3030   -6.2860    0.0690 H       1  UNL1        0.0265
     27 H           0.0930   -6.2290    1.3480 H       1  UNL1        0.0265
     28 H          -0.1540   -4.8290   -1.3780 H       1  UNL1        0.0265
     29 H          -1.3690   -4.7760   -0.1040 H       1  UNL1        0.0265
     30 H           1.5060   -3.7170    0.1570 H       1  UNL1        0.0265
     31 H           0.2920   -3.6690    1.4350 H       1  UNL1        0.0265
     32 H          -1.1740   -2.2190   -0.0170 H       1  UNL1        0.0265
     33 H           0.0480   -2.2580   -1.2870 H       1  UNL1        0.0265
     34 H           0.4700   -1.1050    1.5330 H       1  UNL1        0.0265
     35 H           1.6930   -1.1430    0.2640 H       1  UNL1        0.0265
     36 H          -0.9950    0.3370    0.0660 H       1  UNL1        0.0265
     37 H           0.2450    0.3110   -1.1880 H       1  UNL1        0.0265
     38 H           1.8630    1.4250    0.3940 H       1  UNL1        0.0266
     39 H           0.6180    1.4520    1.6440 H       1  UNL1        0.0266
     40 H           0.4270    2.8770   -1.0790 H       1  UNL1        0.0280
     41 H          -0.8330    2.8960    0.1580 H       1  UNL1        0.0280
     42 H           2.0190    4.0060    0.5390 H       1  UNL1        0.0464
     43 H           0.7490    4.0230    1.7660 H       1  UNL1        0.0464
     44 H           1.5970    5.4880   -1.6680 H       1  UNL1        0.0793
     45 H           0.1510    7.8420   -1.9360 H       1  UNL1        0.0793
     46 H          -0.9830    5.9170    1.6780 H       1  UNL1        0.0746
     47 H          -2.3720    8.3530   -0.5810 H       1  UNL1        0.0428
     48 H          -1.0860    9.2380    0.2930 H       1  UNL1        0.0428
     49 H          -2.1470    8.1070    1.1660 H       1  UNL1        0.0428
@<TRIPOS>BOND
     1     1    20    1
     2     1    21    1
     3     1    19    1
     4     1     2    1
     5     2     3    1
     6     2    22    1
     7     2    23    1
     8     3    25    1
     9     3    24    1
    10     3     4    1
    11     4    26    1
    12     4    27    1
    13     4     5    1
    14     5    29    1
    15     5    28    1
    16     5     6    1
    17     6    30    1
    18     6    31    1
    19     6     7    1
    20     7    32    1
    21     7    33    1
    22     7     8    1
    23     8     9    1
    24     8    34    1
    25     8    35    1
    26     9    36    1
    27     9    37    1
    28     9    10    1
    29    10    39    1
    30    10    11    1
    31    10    38    1
    32    11    41    1
    33    11    40    1
    34    11    12    1
    35    12    43    1
    36    12    13    1
    37    12    42    1
    38    13    17    1
    39    13    14    1
    40    14    15    2
    41    14    44    1
    42    15    16    1
    43    15    45    1
    44    16    17    1
    45    16    18    1
    46    17    46    1
    47    18    47    1
    48    18    49    1
    49    18    48    1
