@<TRIPOS>MOLECULE
DTAB.pdb
   50    49     1     0     0
SMALL
bcc


@<TRIPOS>ATOM
      1 C           -1.2260    -8.4340    -0.2030 c3         1 DTA      -0.094100
      2 C1          -1.1000    -6.9470    -0.5780 c3         1 DTA      -0.079400
      3 C2           0.1000    -6.2550     0.0960 c3         1 DTA      -0.080400
      4 C3           0.2340    -4.7620    -0.2600 c3         1 DTA      -0.078400
      5 C4           1.4120    -4.0750     0.4580 c3         1 DTA      -0.080400
      6 C5           1.6440    -2.6030     0.0570 c3         1 DTA      -0.077400
      7 C6           0.4830    -1.6490     0.4000 c3         1 DTA      -0.080400
      8 C7           0.8350    -0.1680     0.1600 c3         1 DTA      -0.079400
      9 C8          -0.3440     0.7930     0.3970 c3         1 DTA      -0.081400
     10 C9           0.0620     2.2760     0.2850 c3         1 DTA      -0.088400
     11 C10         -1.1490     3.2260     0.3810 c3         1 DTA      -0.109400
     12 C11         -0.8940     4.6830     0.7870 c3         1 DTA       0.116800
     13 N           -0.1320     5.5980    -0.2030 n4         1 DTA      -0.602800
     14 C12          1.3510     5.2650    -0.2510 c3         1 DTA       0.087433
     15 C13         -0.7150     5.5090    -1.6010 c3         1 DTA       0.087433
     16 C14         -0.2740     7.0320     0.2940 c3         1 DTA       0.087433
     17 H           -2.0920    -8.8980    -0.6900 hc         1 DTA       0.035700
     18 H1          -1.3430    -8.5560     0.8820 hc         1 DTA       0.035700
     19 H2          -0.3300    -8.9920    -0.5070 hc         1 DTA       0.035700
     20 H3          -2.0240    -6.4180    -0.2960 hc         1 DTA       0.037200
     21 H4          -1.0080    -6.8500    -1.6700 hc         1 DTA       0.037200
     22 H5           0.0060    -6.3590     1.1890 hc         1 DTA       0.042700
     23 H6           1.0260    -6.7800    -0.1880 hc         1 DTA       0.042700
     24 H7          -0.7060    -4.2500    -0.0080 hc         1 DTA       0.036700
     25 H8           0.3650    -4.6580    -1.3490 hc         1 DTA       0.036700
     26 H9           2.3310    -4.6440     0.2500 hc         1 DTA       0.045200
     27 H10          1.2530    -4.1300     1.5470 hc         1 DTA       0.045200
     28 H11          1.8450    -2.5490    -1.0250 hc         1 DTA       0.040700
     29 H12          2.5550    -2.2430     0.5600 hc         1 DTA       0.040700
     30 H13         -0.4030    -1.9090    -0.1950 hc         1 DTA       0.046200
     31 H14          0.2020    -1.7840     1.4570 hc         1 DTA       0.046200
     32 H15          1.1960    -0.0430    -0.8730 hc         1 DTA       0.041200
     33 H16          1.6720     0.1130     0.8180 hc         1 DTA       0.041200
     34 H17         -0.7700     0.6120     1.3960 hc         1 DTA       0.052700
     35 H18         -1.1420     0.5740    -0.3290 hc         1 DTA       0.052700
     36 H19          0.7830     2.5100     1.0820 hc         1 DTA       0.041200
     37 H20          0.5850     2.4200    -0.6710 hc         1 DTA       0.041200
     38 H21         -1.8140     2.8550     1.1760 hc         1 DTA       0.082700
     39 H22         -1.7410     3.1780    -0.5420 hc         1 DTA       0.082700
     40 H23         -0.3240     4.7310     1.7180 hx         1 DTA       0.097200
     41 H24         -1.8560     5.1800     0.9380 hx         1 DTA       0.097200
     42 H25          1.4830     4.2870    -0.7040 hx         1 DTA       0.102144
     43 H26          1.7480     5.2730     0.7640 hx         1 DTA       0.102144
     44 H27          1.8430     6.0260    -0.8590 hx         1 DTA       0.102144
     45 H28         -0.5440     4.5090    -1.9980 hx         1 DTA       0.102144
     46 H29         -0.2130     6.2520    -2.2220 hx         1 DTA       0.102144
     47 H30         -1.7830     5.7250    -1.5430 hx         1 DTA       0.102144
     48 H31          0.1340     7.0840     1.3040 hx         1 DTA       0.102144
     49 H32         -1.3270     7.3110     0.2930 hx         1 DTA       0.102144
     50 H33          0.2870     7.6830    -0.3770 hx         1 DTA       0.102144
@<TRIPOS>BOND
     1     1    17 1   
     2     1     2 1   
     3     1    19 1   
     4     1    18 1   
     5     2    21 1   
     6     2    20 1   
     7     2     3 1   
     8     3     4 1   
     9     3    23 1   
    10     3    22 1   
    11     4    25 1   
    12     4    24 1   
    13     4     5 1   
    14     5     6 1   
    15     5    26 1   
    16     5    27 1   
    17     6    28 1   
    18     6     7 1   
    19     6    29 1   
    20     7    30 1   
    21     7     8 1   
    22     7    31 1   
    23     8    32 1   
    24     8     9 1   
    25     8    33 1   
    26     9    35 1   
    27     9    10 1   
    28     9    34 1   
    29    10    37 1   
    30    10    11 1   
    31    10    36 1   
    32    11    39 1   
    33    11    12 1   
    34    11    38 1   
    35    12    13 1   
    36    12    41 1   
    37    12    40 1   
    38    13    15 1   
    39    13    14 1   
    40    13    16 1   
    41    14    44 1   
    42    14    42 1   
    43    14    43 1   
    44    15    46 1   
    45    15    45 1   
    46    15    47 1   
    47    16    50 1   
    48    16    49 1   
    49    16    48 1   
@<TRIPOS>SUBSTRUCTURE
     1 DTA         1 TEMP              0 ****  ****    0 ROOT
