@<TRIPOS>MOLECULE
DTAB.pdb
 50 49 0 0 0
SMALL
GASTEIGER

@<TRIPOS>ATOM
      1  C         -1.2260   -8.4340   -0.2030 C.3     1  DTA1       -0.0653
      2  C         -1.1000   -6.9470   -0.5780 C.3     1  DTA1       -0.0559
      3  C          0.1000   -6.2550    0.0960 C.3     1  DTA1       -0.0533
      4  C          0.2340   -4.7620   -0.2600 C.3     1  DTA1       -0.0531
      5  C          1.4120   -4.0750    0.4580 C.3     1  DTA1       -0.0531
      6  C          1.6440   -2.6030    0.0570 C.3     1  DTA1       -0.0531
      7  C          0.4830   -1.6490    0.4000 C.3     1  DTA1       -0.0531
      8  C          0.8350   -0.1680    0.1600 C.3     1  DTA1       -0.0531
      9  C         -0.3440    0.7930    0.3970 C.3     1  DTA1       -0.0531
     10  C          0.0620    2.2760    0.2850 C.3     1  DTA1       -0.0547
     11  C         -1.1490    3.2260    0.3810 C.3     1  DTA1       -0.0676
     12  C         -0.8940    4.6830    0.7870 C.3     1  DTA1       -0.0889
     13  N         -0.1320    5.5980   -0.2030 N.4     1  DTA1        0.3744
     14  C          1.3510    5.2650   -0.2510 C.3     1  DTA1       -0.1012
     15  C         -0.7150    5.5090   -1.6010 C.3     1  DTA1       -0.1012
     16  C         -0.2740    7.0320    0.2940 C.3     1  DTA1       -0.1012
     17  H         -2.0920   -8.8980   -0.6900 H       1  DTA1        0.0230
     18  H         -1.3430   -8.5560    0.8820 H       1  DTA1        0.0230
     19  H         -0.3300   -8.9920   -0.5070 H       1  DTA1        0.0230
     20  H         -2.0240   -6.4180   -0.2960 H       1  DTA1        0.0263
     21  H         -1.0080   -6.8500   -1.6700 H       1  DTA1        0.0263
     22  H          0.0060   -6.3590    1.1890 H       1  DTA1        0.0265
     23  H          1.0260   -6.7800   -0.1880 H       1  DTA1        0.0265
     24  H         -0.7060   -4.2500   -0.0080 H       1  DTA1        0.0265
     25  H          0.3650   -4.6580   -1.3490 H       1  DTA1        0.0265
     26  H          2.3310   -4.6440    0.2500 H       1  DTA1        0.0265
     27  H          1.2530   -4.1300    1.5470 H       1  DTA1        0.0265
     28  H          1.8450   -2.5490   -1.0250 H       1  DTA1        0.0265
     29  H          2.5550   -2.2430    0.5600 H       1  DTA1        0.0265
     30  H         -0.4030   -1.9090   -0.1950 H       1  DTA1        0.0265
     31  H          0.2020   -1.7840    1.4570 H       1  DTA1        0.0265
     32  H          1.1960   -0.0430   -0.8730 H       1  DTA1        0.0265
     33  H          1.6720    0.1130    0.8180 H       1  DTA1        0.0265
     34  H         -0.7700    0.6120    1.3960 H       1  DTA1        0.0265
     35  H         -1.1420    0.5740   -0.3290 H       1  DTA1        0.0265
     36  H          0.7830    2.5100    1.0820 H       1  DTA1        0.0265
     37  H          0.5850    2.4200   -0.6710 H       1  DTA1        0.0265
     38  H         -1.8140    2.8550    1.1760 H       1  DTA1        0.0247
     39  H         -1.7410    3.1780   -0.5420 H       1  DTA1        0.0247
     40  H         -0.3240    4.7310    1.7180 H       1  DTA1        0.0064
     41  H         -1.8560    5.1800    0.9380 H       1  DTA1        0.0064
     42  H          1.4830    4.2870   -0.7040 H       1  DTA1        0.0028
     43  H          1.7480    5.2730    0.7640 H       1  DTA1        0.0028
     44  H          1.8430    6.0260   -0.8590 H       1  DTA1        0.0028
     45  H         -0.5440    4.5090   -1.9980 H       1  DTA1        0.0028
     46  H         -0.2130    6.2520   -2.2220 H       1  DTA1        0.0028
     47  H         -1.7830    5.7250   -1.5430 H       1  DTA1        0.0028
     48  H          0.1340    7.0840    1.3040 H       1  DTA1        0.0028
     49  H         -1.3270    7.3110    0.2930 H       1  DTA1        0.0028
     50  H          0.2870    7.6830   -0.3770 H       1  DTA1        0.0028
@<TRIPOS>BOND
     1     1    17    1
     2     1     2    1
     3     1    19    1
     4     1    18    1
     5     2    21    1
     6     2    20    1
     7     2     3    1
     8     3     4    1
     9     3    23    1
    10     3    22    1
    11     4    25    1
    12     4    24    1
    13     4     5    1
    14     5     6    1
    15     5    26    1
    16     5    27    1
    17     6    28    1
    18     6     7    1
    19     6    29    1
    20     7    30    1
    21     7     8    1
    22     7    31    1
    23     8    32    1
    24     8     9    1
    25     8    33    1
    26     9    35    1
    27     9    10    1
    28     9    34    1
    29    10    37    1
    30    10    11    1
    31    10    36    1
    32    11    39    1
    33    11    12    1
    34    11    38    1
    35    12    13    1
    36    12    41    1
    37    12    40    1
    38    13    15    1
    39    13    14    1
    40    13    16    1
    41    14    44    1
    42    14    42    1
    43    14    43    1
    44    15    46    1
    45    15    45    1
    46    15    47    1
    47    16    50    1
    48    16    49    1
    49    16    48    1
